         547
input.xyz
C       5.91137     9.66947    11.84851
C       5.91137    11.84851     9.66947
C       5.91137    11.84851    14.02756
C       5.91137    14.02756    11.84851
C       5.91137    14.02756    16.20660
C       5.91137    16.20660    14.02756
C      10.26947     5.31137    11.84851
C       8.09042     9.66947     9.66947
C      10.26947     7.49042     9.66947
C      10.26947     9.66947     7.49042
Si      7.00090     8.57994    12.93803
Si      9.17994     6.40090    12.93803
Si      9.17994     8.57994    10.75899
C       8.09042     7.49042    11.84851
C       8.09042     9.66947    14.02756
C      10.26947     7.49042    14.02756
C      10.26947     9.66947    11.84851
Si      9.17994     8.57994    15.11708
C       8.09042     7.49042    16.20660
C       8.09042     9.66947    18.38565
C      10.26947     7.49042    18.38565
C      10.26947     9.66947    16.20660
C      10.26947    11.84851     5.31137
Si      7.00090    12.93803     8.57994
Si      9.17994    10.75899     8.57994
Si      9.17994    12.93803     6.40090
C       8.09042    11.84851     7.49042
C       8.09042    14.02756     9.66947
C      10.26947    11.84851     9.66947
C      10.26947    14.02756     7.49042
Si      7.00090    10.75899    10.75899
Si      7.00090    12.93803    12.93803
Si      9.17994    10.75899    12.93803
Si      9.17994    12.93803    10.75899
C       8.09042    11.84851    11.84851
C       8.09042    14.02756    14.02756
C      10.26947    11.84851    14.02756
C      10.26947    14.02756    11.84851
Si      7.00090    10.75899    15.11708
Si      7.00090    12.93803    17.29613
Si      9.17994    10.75899    17.29613
Si      9.17994    12.93803    15.11708
C       8.09042    11.84851    16.20660
C       8.09042    14.02756    18.38565
C      10.26947    11.84851    18.38565
C      10.26947    14.02756    16.20660
Si      9.17994    12.93803    19.47517
Si      9.17994    15.11708     8.57994
C       8.09042    16.20660     7.49042
C       8.09042    18.38565     9.66947
C      10.26947    16.20660     9.66947
C      10.26947    18.38565     7.49042
Si      7.00090    15.11708    10.75899
Si      7.00090    17.29613    12.93803
Si      9.17994    15.11708    12.93803
Si      9.17994    17.29613    10.75899
C       8.09042    16.20660    11.84851
C       8.09042    18.38565    14.02756
C      10.26947    16.20660    14.02756
C      10.26947    18.38565    11.84851
Si      7.00090    15.11708    15.11708
Si      9.17994    15.11708    17.29613
Si      9.17994    17.29613    15.11708
C       8.09042    16.20660    16.20660
C      10.26947    16.20660    18.38565
C      10.26947    18.38565    16.20660
Si      9.17994    19.47517    12.93803
C      12.44851     5.31137     9.66947
C      12.44851     5.31137    14.02756
C      14.62756     5.31137    11.84851
C      14.62756     5.31137    16.20660
C      12.44851     9.66947     5.31137
Si     11.35899     8.57994     8.57994
Si     13.53803     6.40090     8.57994
Si     13.53803     8.57994     6.40090
C      12.44851     7.49042     7.49042
C      12.44851     9.66947     9.66947
C      14.62756     7.49042     9.66947
C      14.62756     9.66947     7.49042
Si     11.35899     6.40090    10.75899
Si     11.35899     8.57994    12.93803
Si     13.53803     6.40090    12.93803
Si     13.53803     8.57994    10.75899
C      12.44851     7.49042    11.84851
C      12.44851     9.66947    14.02756
C      14.62756     7.49042    14.02756
C      14.62756     9.66947    11.84851
Si     11.35899     6.40090    15.11708
Si     11.35899     8.57994    17.29613
Si     13.53803     6.40090    17.29613
Si     13.53803     8.57994    15.11708
C      12.44851     7.49042    16.20660
C      12.44851     9.66947    18.38565
C      14.62756     7.49042    18.38565
C      14.62756     9.66947    16.20660
Si     13.53803     8.57994    19.47517
C      12.44851    14.02756     5.31137
C      14.62756    11.84851     5.31137
Si     11.35899    10.75899     6.40090
Si     11.35899    12.93803     8.57994
Si     13.53803    10.75899     8.57994
Si     13.53803    12.93803     6.40090
C      12.44851    11.84851     7.49042
C      12.44851    14.02756     9.66947
C      14.62756    11.84851     9.66947
C      14.62756    14.02756     7.49042
Si     11.35899    10.75899    10.75899
Si     11.35899    12.93803    12.93803
Si     13.53803    10.75899    12.93803
Si     13.53803    12.93803    10.75899
C      12.44851    11.84851    11.84851
C      12.44851    14.02756    14.02756
C      14.62756    11.84851    14.02756
C      14.62756    14.02756    11.84851
Si     11.35899    10.75899    15.11708
Si     11.35899    12.93803    17.29613
Si     13.53803    10.75899    17.29613
Si     13.53803    12.93803    15.11708
C      12.44851    11.84851    16.20660
C      12.44851    14.02756    18.38565
C      14.62756    11.84851    18.38565
C      14.62756    14.02756    16.20660
Si     11.35899    10.75899    19.47517
Si     13.53803    12.93803    19.47517
C      12.44851    11.84851    20.56470
C      14.62756    14.02756    20.56470
C      14.62756    16.20660     5.31137
Si     11.35899    15.11708     6.40090
Si     11.35899    17.29613     8.57994
Si     13.53803    15.11708     8.57994
Si     13.53803    17.29613     6.40090
C      12.44851    16.20660     7.49042
C      12.44851    18.38565     9.66947
C      14.62756    16.20660     9.66947
C      14.62756    18.38565     7.49042
Si     11.35899    15.11708    10.75899
Si     11.35899    17.29613    12.93803
Si     13.53803    15.11708    12.93803
Si     13.53803    17.29613    10.75899
C      12.44851    16.20660    11.84851
C      12.44851    18.38565    14.02756
C      14.62756    16.20660    14.02756
C      14.62756    18.38565    11.84851
Si     11.35899    15.11708    15.11708
Si     11.35899    17.29613    17.29613
Si     13.53803    15.11708    17.29613
Si     13.53803    17.29613    15.11708
C      12.44851    16.20660    16.20660
C      12.44851    18.38565    18.38565
C      14.62756    16.20660    18.38565
C      14.62756    18.38565    16.20660
Si     11.35899    15.11708    19.47517
Si     13.53803    17.29613    19.47517
Si     13.53803    19.47517     8.57994
Si     11.35899    19.47517    10.75899
Si     13.53803    19.47517    12.93803
C      12.44851    20.56470    11.84851
C      14.62756    20.56470    14.02756
Si     11.35899    19.47517    15.11708
Si     13.53803    19.47517    17.29613
C      16.80660     5.31137    14.02756
Si     15.71708     8.57994     8.57994
C      16.80660     7.49042     7.49042
C      16.80660     9.66947     9.66947
C      18.98565     7.49042     9.66947
C      18.98565     9.66947     7.49042
Si     15.71708     6.40090    10.75899
Si     15.71708     8.57994    12.93803
Si     17.89613     6.40090    12.93803
Si     17.89613     8.57994    10.75899
C      16.80660     7.49042    11.84851
C      16.80660     9.66947    14.02756
C      18.98565     7.49042    14.02756
C      18.98565     9.66947    11.84851
Si     15.71708     6.40090    15.11708
Si     15.71708     8.57994    17.29613
Si     17.89613     8.57994    15.11708
C      16.80660     7.49042    16.20660
C      16.80660     9.66947    18.38565
C      18.98565     9.66947    16.20660
C      16.80660    14.02756     5.31137
Si     15.71708    10.75899     6.40090
Si     15.71708    12.93803     8.57994
Si     17.89613    10.75899     8.57994
Si     17.89613    12.93803     6.40090
C      16.80660    11.84851     7.49042
C      16.80660    14.02756     9.66947
C      18.98565    11.84851     9.66947
C      18.98565    14.02756     7.49042
Si     15.71708    10.75899    10.75899
Si     15.71708    12.93803    12.93803
Si     17.89613    10.75899    12.93803
Si     17.89613    12.93803    10.75899
C      16.80660    11.84851    11.84851
C      16.80660    14.02756    14.02756
C      18.98565    11.84851    14.02756
C      18.98565    14.02756    11.84851
Si     15.71708    10.75899    15.11708
Si     15.71708    12.93803    17.29613
Si     17.89613    10.75899    17.29613
Si     17.89613    12.93803    15.11708
C      16.80660    11.84851    16.20660
C      16.80660    14.02756    18.38565
C      18.98565    11.84851    18.38565
C      18.98565    14.02756    16.20660
Si     15.71708    10.75899    19.47517
Si     17.89613    12.93803    19.47517
Si     15.71708    15.11708     6.40090
Si     15.71708    17.29613     8.57994
Si     17.89613    15.11708     8.57994
C      16.80660    16.20660     7.49042
C      16.80660    18.38565     9.66947
C      18.98565    16.20660     9.66947
Si     15.71708    15.11708    10.75899
Si     15.71708    17.29613    12.93803
Si     17.89613    15.11708    12.93803
Si     17.89613    17.29613    10.75899
C      16.80660    16.20660    11.84851
C      16.80660    18.38565    14.02756
C      18.98565    16.20660    14.02756
C      18.98565    18.38565    11.84851
Si     15.71708    15.11708    15.11708
Si     15.71708    17.29613    17.29613
Si     17.89613    15.11708    17.29613
Si     17.89613    17.29613    15.11708
C      16.80660    16.20660    16.20660
Si     15.71708    15.11708    19.47517
Si     15.71708    19.47517    10.75899
Si     17.89613    19.47517    12.93803
Si     15.71708    19.47517    15.11708
Si     20.07517     8.57994    12.93803
Si     20.07517    12.93803     8.57994
Si     20.07517    10.75899    10.75899
Si     20.07517    12.93803    12.93803
C      21.16470    11.84851    11.84851
C      21.16470    14.02756    14.02756
Si     20.07517    10.75899    15.11708
Si     20.07517    12.93803    17.29613
Si     20.07517    15.11708    10.75899
Si     20.07517    17.29613    12.93803
Si     20.07517    15.11708    15.11708
O       1.20000     0.00000     0.00000
O       0.00000     0.00000     0.00000
O       1.20000     0.00000     4.63057
O       0.00000     0.00000     4.63057
O       1.20000     0.00000     9.26115
O       0.00000     0.00000     9.26115
O       1.20000     0.00000    13.89172
O       0.00000     0.00000    13.89172
O       1.20000     0.00000    18.52229
O       0.00000     0.00000    18.52229
O       1.20000     0.00000    23.15287
O       0.00000     0.00000    23.15287
O       1.20000     4.63057     0.00000
O       0.00000     4.63057     0.00000
O       1.20000     4.63057     4.63057
O       0.00000     4.63057     4.63057
O       1.20000     4.63057     9.26115
O       0.00000     4.63057     9.26115
O       1.20000     4.63057    13.89172
O       0.00000     4.63057    13.89172
O       1.20000     4.63057    18.52229
O       0.00000     4.63057    18.52229
O       1.20000     4.63057    23.15287
O       0.00000     4.63057    23.15287
O       1.20000     9.26115     0.00000
O       0.00000     9.26115     0.00000
O       1.20000     9.26115     4.63057
O       0.00000     9.26115     4.63057
O       1.20000     9.26115     9.26115
O       0.00000     9.26115     9.26115
O       1.20000     9.26115    13.89172
O       0.00000     9.26115    13.89172
O       1.20000     9.26115    18.52229
O       0.00000     9.26115    18.52229
O       1.20000     9.26115    23.15287
O       0.00000     9.26115    23.15287
O       1.20000    13.89172     0.00000
O       0.00000    13.89172     0.00000
O       1.20000    13.89172     4.63057
O       0.00000    13.89172     4.63057
O       1.20000    13.89172     9.26115
O       0.00000    13.89172     9.26115
O       1.20000    13.89172    13.89172
O       0.00000    13.89172    13.89172
O       1.20000    13.89172    18.52229
O       0.00000    13.89172    18.52229
O       1.20000    13.89172    23.15287
O       0.00000    13.89172    23.15287
O       1.20000    18.52229     0.00000
O       0.00000    18.52229     0.00000
O       1.20000    18.52229     4.63057
O       0.00000    18.52229     4.63057
O       1.20000    18.52229     9.26115
O       0.00000    18.52229     9.26115
O       1.20000    18.52229    13.89172
O       0.00000    18.52229    13.89172
O       1.20000    18.52229    18.52229
O       0.00000    18.52229    18.52229
O       1.20000    18.52229    23.15287
O       0.00000    18.52229    23.15287
O       1.20000    23.15287     0.00000
O       0.00000    23.15287     0.00000
O       1.20000    23.15287     4.63057
O       0.00000    23.15287     4.63057
O       1.20000    23.15287     9.26115
O       0.00000    23.15287     9.26115
O       1.20000    23.15287    13.89172
O       0.00000    23.15287    13.89172
O       1.20000    23.15287    18.52229
O       0.00000    23.15287    18.52229
O       1.20000    23.15287    23.15287
O       0.00000    23.15287    23.15287
O       5.83057     0.00000     0.00000
O       4.63057     0.00000     0.00000
O       5.83057     0.00000     4.63057
O       4.63057     0.00000     4.63057
O       5.83057     0.00000     9.26115
O       4.63057     0.00000     9.26115
O       5.83057     0.00000    13.89172
O       4.63057     0.00000    13.89172
O       5.83057     0.00000    18.52229
O       4.63057     0.00000    18.52229
O       5.83057     0.00000    23.15287
O       4.63057     0.00000    23.15287
O       5.83057     4.63057     0.00000
O       4.63057     4.63057     0.00000
O       5.83057     4.63057     4.63057
O       4.63057     4.63057     4.63057
O       5.83057     4.63057     9.26115
O       4.63057     4.63057     9.26115
O       5.83057     4.63057    18.52229
O       4.63057     4.63057    18.52229
O       5.83057     4.63057    23.15287
O       4.63057     4.63057    23.15287
O       5.83057     9.26115     0.00000
O       4.63057     9.26115     0.00000
O       5.83057     9.26115     4.63057
O       4.63057     9.26115     4.63057
O       5.83057     9.26115    23.15287
O       4.63057     9.26115    23.15287
O       5.83057    13.89172     0.00000
O       4.63057    13.89172     0.00000
O       5.83057    13.89172    23.15287
O       4.63057    13.89172    23.15287
O       5.83057    18.52229     0.00000
O       4.63057    18.52229     0.00000
O       5.83057    18.52229     4.63057
O       4.63057    18.52229     4.63057
O       5.83057    18.52229    18.52229
O       4.63057    18.52229    18.52229
O       5.83057    18.52229    23.15287
O       4.63057    18.52229    23.15287
O       5.83057    23.15287     0.00000
O       4.63057    23.15287     0.00000
O       5.83057    23.15287     4.63057
O       4.63057    23.15287     4.63057
O       5.83057    23.15287     9.26115
O       4.63057    23.15287     9.26115
O       5.83057    23.15287    13.89172
O       4.63057    23.15287    13.89172
O       5.83057    23.15287    18.52229
O       4.63057    23.15287    18.52229
O       5.83057    23.15287    23.15287
O       4.63057    23.15287    23.15287
O      10.46115     0.00000     0.00000
O       9.26115     0.00000     0.00000
O      10.46115     0.00000     4.63057
O       9.26115     0.00000     4.63057
O      10.46115     0.00000     9.26115
O       9.26115     0.00000     9.26115
O      10.46115     0.00000    13.89172
O       9.26115     0.00000    13.89172
O      10.46115     0.00000    18.52229
O       9.26115     0.00000    18.52229
O      10.46115     0.00000    23.15287
O       9.26115     0.00000    23.15287
O      10.46115     4.63057     0.00000
O       9.26115     4.63057     0.00000
O      10.46115     4.63057     4.63057
O       9.26115     4.63057     4.63057
O      10.46115     4.63057    23.15287
O       9.26115     4.63057    23.15287
O      10.46115     9.26115     0.00000
O       9.26115     9.26115     0.00000
O      10.46115     9.26115    23.15287
O       9.26115     9.26115    23.15287
O      10.46115    13.89172     0.00000
O       9.26115    13.89172     0.00000
O      10.46115    18.52229     0.00000
O       9.26115    18.52229     0.00000
O      10.46115    18.52229    23.15287
O       9.26115    18.52229    23.15287
O      10.46115    23.15287     0.00000
O       9.26115    23.15287     0.00000
O      10.46115    23.15287     4.63057
O       9.26115    23.15287     4.63057
O      10.46115    23.15287     9.26115
O       9.26115    23.15287     9.26115
O      10.46115    23.15287    18.52229
O       9.26115    23.15287    18.52229
O      10.46115    23.15287    23.15287
O       9.26115    23.15287    23.15287
O      15.09172     0.00000     0.00000
O      13.89172     0.00000     0.00000
O      15.09172     0.00000     4.63057
O      13.89172     0.00000     4.63057
O      15.09172     0.00000     9.26115
O      13.89172     0.00000     9.26115
O      15.09172     0.00000    13.89172
O      13.89172     0.00000    13.89172
O      15.09172     0.00000    18.52229
O      13.89172     0.00000    18.52229
O      15.09172     0.00000    23.15287
O      13.89172     0.00000    23.15287
O      15.09172     4.63057     0.00000
O      13.89172     4.63057     0.00000
O      15.09172     4.63057    23.15287
O      13.89172     4.63057    23.15287
O      15.09172     9.26115     0.00000
O      13.89172     9.26115     0.00000
O      15.09172    13.89172     0.00000
O      13.89172    13.89172     0.00000
O      15.09172    18.52229     0.00000
O      13.89172    18.52229     0.00000
O      15.09172    18.52229    23.15287
O      13.89172    18.52229    23.15287
O      15.09172    23.15287     0.00000
O      13.89172    23.15287     0.00000
O      15.09172    23.15287     4.63057
O      13.89172    23.15287     4.63057
O      15.09172    23.15287    18.52229
O      13.89172    23.15287    18.52229
O      15.09172    23.15287    23.15287
O      13.89172    23.15287    23.15287
O      19.72229     0.00000     0.00000
O      18.52229     0.00000     0.00000
O      19.72229     0.00000     4.63057
O      18.52229     0.00000     4.63057
O      19.72229     0.00000     9.26115
O      18.52229     0.00000     9.26115
O      19.72229     0.00000    13.89172
O      18.52229     0.00000    13.89172
O      19.72229     0.00000    18.52229
O      18.52229     0.00000    18.52229
O      19.72229     0.00000    23.15287
O      18.52229     0.00000    23.15287
O      19.72229     4.63057     0.00000
O      18.52229     4.63057     0.00000
O      19.72229     4.63057     4.63057
O      18.52229     4.63057     4.63057
O      19.72229     4.63057    18.52229
O      18.52229     4.63057    18.52229
O      19.72229     4.63057    23.15287
O      18.52229     4.63057    23.15287
O      19.72229     9.26115     0.00000
O      18.52229     9.26115     0.00000
O      19.72229     9.26115    23.15287
O      18.52229     9.26115    23.15287
O      19.72229    13.89172     0.00000
O      18.52229    13.89172     0.00000
O      19.72229    13.89172    23.15287
O      18.52229    13.89172    23.15287
O      19.72229    18.52229     0.00000
O      18.52229    18.52229     0.00000
O      19.72229    18.52229     4.63057
O      18.52229    18.52229     4.63057
O      19.72229    18.52229    23.15287
O      18.52229    18.52229    23.15287
O      19.72229    23.15287     0.00000
O      18.52229    23.15287     0.00000
O      19.72229    23.15287     4.63057
O      18.52229    23.15287     4.63057
O      19.72229    23.15287     9.26115
O      18.52229    23.15287     9.26115
O      19.72229    23.15287    13.89172
O      18.52229    23.15287    13.89172
O      19.72229    23.15287    18.52229
O      18.52229    23.15287    18.52229
O      19.72229    23.15287    23.15287
O      18.52229    23.15287    23.15287
O      24.35287     0.00000     0.00000
O      23.15287     0.00000     0.00000
O      24.35287     0.00000     4.63057
O      23.15287     0.00000     4.63057
O      24.35287     0.00000     9.26115
O      23.15287     0.00000     9.26115
O      24.35287     0.00000    13.89172
O      23.15287     0.00000    13.89172
O      24.35287     0.00000    18.52229
O      23.15287     0.00000    18.52229
O      24.35287     0.00000    23.15287
O      23.15287     0.00000    23.15287
O      24.35287     4.63057     0.00000
O      23.15287     4.63057     0.00000
O      24.35287     4.63057     4.63057
O      23.15287     4.63057     4.63057
O      24.35287     4.63057     9.26115
O      23.15287     4.63057     9.26115
O      24.35287     4.63057    13.89172
O      23.15287     4.63057    13.89172
O      24.35287     4.63057    18.52229
O      23.15287     4.63057    18.52229
O      24.35287     4.63057    23.15287
O      23.15287     4.63057    23.15287
O      24.35287     9.26115     0.00000
O      23.15287     9.26115     0.00000
O      24.35287     9.26115     4.63057
O      23.15287     9.26115     4.63057
O      24.35287     9.26115     9.26115
O      23.15287     9.26115     9.26115
O      24.35287     9.26115    18.52229
O      23.15287     9.26115    18.52229
O      24.35287     9.26115    23.15287
O      23.15287     9.26115    23.15287
O      24.35287    13.89172     0.00000
O      23.15287    13.89172     0.00000
O      24.35287    13.89172     4.63057
O      23.15287    13.89172     4.63057
O      24.35287    13.89172    18.52229
O      23.15287    13.89172    18.52229
O      24.35287    13.89172    23.15287
O      23.15287    13.89172    23.15287
O      24.35287    18.52229     0.00000
O      23.15287    18.52229     0.00000
O      24.35287    18.52229     4.63057
O      23.15287    18.52229     4.63057
O      24.35287    18.52229     9.26115
O      23.15287    18.52229     9.26115
O      24.35287    18.52229    13.89172
O      23.15287    18.52229    13.89172
O      24.35287    18.52229    18.52229
O      23.15287    18.52229    18.52229
O      24.35287    18.52229    23.15287
O      23.15287    18.52229    23.15287
O      24.35287    23.15287     0.00000
O      23.15287    23.15287     0.00000
O      24.35287    23.15287     4.63057
O      23.15287    23.15287     4.63057
O      24.35287    23.15287     9.26115
O      23.15287    23.15287     9.26115
O      24.35287    23.15287    13.89172
O      23.15287    23.15287    13.89172
O      24.35287    23.15287    18.52229
O      23.15287    23.15287    18.52229
O      24.35287    23.15287    23.15287
O      23.15287    23.15287    23.15287
